test-cases/TEST_parse_psse_v33.RAW
0,   923.45, 33, 0, 3, 45.67  / Comment on the header


    347, 'TESTBUS     ',    89.4321,   2,    78,  876,    3,   0.876543219, 265.432198765,     1.2345,     0.8765,     1.3456,     0.7654
0 / end of bus data(1), begin load data(1) 
    347, '1 ', 2,   78,  876,   0.09876,   0.12345,   0.23456,   0.34567,   0.45678,   0.56789,     2,2,3
0 / end of load data(1), begin fixed shunt data(1) 
 20987, '1 ',  2,      1.234,     45.678
0 / end of fixed shunt data(1), begin generator data(1) 
 24568, '1 ',       4.567,     -8.901,      9.123,     -9.234,    1.34567,  24568,    234.567,1.23456E+00,9.87654E-01,2.34567E+00,3.45678E+00,    1.23456, 2,  234.5,    234.567,      1.234,   2,  1.2345
0 / end of generator data(1), begin nontransformer branch data
    347,  876543,'1 ',6.789012E-03,4.567890E-03,   0.02345,   345.67,   345.67,     1.23,   0.12345,   0.23456,   0.34567,   0.45678, 2,2,   0.12345,   2,  1.2345,
0 / end of nontransformer branch data(1), begin transformer data
 24568,  24569,      0, '1 ', 2, 2, 2, 1.23456E+00, 2.34567E+00, 3, 'IR39 SUB    ', 2,  802, 1.2345,    1, 1.2345,    1, 1.2345,    1, 1.2345, '            '
4.56789E-03, 2.34567E-01,   234.56,
     1.23456,    1.234,    1.234,   345.67,   345.67,     1.23,  1,        1,    1.23456,    0.87654,    1.23456,    0.87654,   78,    1,    1.23456,    2.34567,      1.234
     1.23456,    1.234,
0 / end of transformer data, begin area interchange data
    2,      1,     1.234, 98765.432, 'CHANGE1     '
0 / end of area interchange data, begin two-terminal dc line data
"TEST2DC      ",1,  23.45678,   789.54,  567.89,    1.23,  23.4567, 0.23456, 'I',    1.23,   45, 1.23456 
789012, 3,  23.456,  23.456,   0.45678,  34.56789,  345.67,  0.87654,  0.98765,  1.34567,  0.87654,  0.02345,      1,      1,      1, '1 ',   0.12345 
789345, 3,  23.456,  23.456,   0.45678,  34.56789,  456.78,  0.65432,  0.98765,  1.34567,  0.87654,  0.02345,      1,      1,      1, '1 ',   0.12345 
0 / end of two-terminal dc line data(1), begin VSC dc line data
'TST-VSC     ', 1,     2.5800,  68,  2.0000
889880, 2, 1,      96.00, 1.02000,  1600.000,     3.400,  1110.000,    360.00,   1032.00,0.50000,    -21.00,    -785.00, 124895,  100.0
124895, 1, 1,     450.00, 1.05550,  1600.000,     3.400,  3330.000,    860.00,   1985.00,0.50000,    -12.00,    -65.00, 889880,  90.0
0 / end of VSC dc line data(1), begin transformer impedance correction tables
 2,  -78.90123,  1.23456,  -45.67890,  0.45678,  -34.56789,  0.23456,  -23.45678,  0.12345,  -12.34567,  0.03456,    1.23456,  0.02345,   12.34567,  0.03456,   23.45678,  0.12345,   34.56789,  0.23456,   45.67890,  0.45678,   78.90123,  1.23456
0 / end of transformer impedance correction tables, begin multiterminal dc line data(0)
0 / end of multiterminal dc line data, begin multisection line grouping data(1)
234567,  234568, '&1', 2, 234569,  234570,  234571, 
0 / end of multisection line grouping data(1), begin zone data
     2, 'TEST123     '
0 / end of zone data, begin interarea transfer data(0)
0 / end of interarea transfer data(0), begin owner data
     2, 'OWNER21     ' 
0 / end of owner data, begin facts control device data(1)
"1           ", 234567,      1,  2,     1.234,     2.345, 1.23456,  345.678,     1.234, 0.87654, 1.23456, 1.23456,     1.234, 0.12345,   234.5,  234, 1.23456, 2.34567, 1,234567,"            "
0 / end of facts control device data(54), begin switched shunt data data(1)
 20987,  3,1,2,    1.23456,   1.23456,      1,  234.5,'            ',   78.901,  2,  -78.901,  2,   78.901,
0 / end of switched shunt data(1), begin gne data
0 / end of gne data
0 / end of induction machine data
Q
